output/1_TAP2_1/Cargas_BT_DO08_1_TAP2_1.dss
New "Load.BT_15168_0_M1" bus1="UC15168.1.4" phases=1 conn=delta model=2 kv=0.22 kw = 0.40913035253921054 pf=0.92 status=variable vmaxpu=1.5 vminpu=0.92 daily="RES_2_DO" 
New "Load.BT_15168_0_M2" bus1="UC15168.1.4" phases=1 conn=delta model=3 kv=0.22 kw = 0.40913035253921054 pf=0.92 status=variable vmaxpu=1.5 vminpu=0.92 daily="RES_2_DO"
 
New "Load.BT_15169_1_M1" bus1="UC15169.1.2.3.4" phases=3 conn=delta model=2 kv=0.38 kw = 0.37431074806778836 pf=0.92 status=variable vmaxpu=1.5 vminpu=0.92 daily="RES_2_DO" 
New "Load.BT_15169_1_M2" bus1="UC15169.1.2.3.4" phases=3 conn=delta model=3 kv=0.38 kw = 0.37431074806778836 pf=0.92 status=variable vmaxpu=1.5 vminpu=0.92 daily="RES_2_DO"
 
New "Load.BT_15174_4_M1" bus1="UC15174.1.4" phases=1 conn=delta model=2 kv=0.22 kw = 0.5486725160518923 pf=0.92 status=variable vmaxpu=1.5 vminpu=0.92 daily="RES_10_DO" 
New "Load.BT_15174_4_M2" bus1="UC15174.1.4" phases=1 conn=delta model=3 kv=0.22 kw = 0.5486725160518923 pf=0.92 status=variable vmaxpu=1.5 vminpu=0.92 daily="RES_10_DO"
 
New "Load.BT_13788_5_M1" bus1="UC13788.3.4" phases=1 conn=delta model=2 kv=0.22 kw = 0.13637678417973687 pf=0.92 status=variable vmaxpu=1.5 vminpu=0.92 daily="RES_2_DO" 
New "Load.BT_13788_5_M2" bus1="UC13788.3.4" phases=1 conn=delta model=3 kv=0.22 kw = 0.13637678417973687 pf=0.92 status=variable vmaxpu=1.5 vminpu=0.92 daily="RES_2_DO"
 
New "Load.BT_15175_6_M1" bus1="UC15175.1.2.3.4" phases=3 conn=delta model=2 kv=0.38 kw = 0.40913035253921054 pf=0.92 status=variable vmaxpu=1.5 vminpu=0.92 daily="RES_2_DO" 
New "Load.BT_15175_6_M2" bus1="UC15175.1.2.3.4" phases=3 conn=delta model=3 kv=0.38 kw = 0.40913035253921054 pf=0.92 status=variable vmaxpu=1.5 vminpu=0.92 daily="RES_2_DO"
 
New "Load.BT_10794_8_M1" bus1="ET1_159.2.3.4" phases=2 conn=delta model=2 kv=0.38 kw = 0.39929400608582855 pf=0.92 status=variable vmaxpu=1.5 vminpu=0.92 daily="RES_3_DO" 
New "Load.BT_10794_8_M2" bus1="ET1_159.2.3.4" phases=2 conn=delta model=3 kv=0.38 kw = 0.39929400608582855 pf=0.92 status=variable vmaxpu=1.5 vminpu=0.92 daily="RES_3_DO"
 
New "Load.BT_15178_9_M1" bus1="UC15178.3.4" phases=1 conn=delta model=2 kv=0.22 kw = 0.4075208502291231 pf=0.92 status=variable vmaxpu=1.5 vminpu=0.92 daily="RES_1_DO" 
New "Load.BT_15178_9_M2" bus1="UC15178.3.4" phases=1 conn=delta model=3 kv=0.22 kw = 0.4075208502291231 pf=0.92 status=variable vmaxpu=1.5 vminpu=0.92 daily="RES_1_DO"
 
New "Load.BT_15180_11_M1" bus1="UC15180.1.4" phases=1 conn=delta model=2 kv=0.22 kw = 0.24518804815293113 pf=0.92 status=variable vmaxpu=1.5 vminpu=0.92 daily="RES_2_DO" 
New "Load.BT_15180_11_M2" bus1="UC15180.1.4" phases=1 conn=delta model=3 kv=0.22 kw = 0.24518804815293113 pf=0.92 status=variable vmaxpu=1.5 vminpu=0.92 daily="RES_2_DO"
 
New "Load.BT_15581_15_M1" bus1="UC15581.1.2.3.4" phases=3 conn=delta model=2 kv=0.38 kw = 0.0 pf=0.92 status=variable vmaxpu=1.5 vminpu=0.92 daily="RES_3_DO" 
New "Load.BT_15581_15_M2" bus1="UC15581.1.2.3.4" phases=3 conn=delta model=3 kv=0.38 kw = 0.0 pf=0.92 status=variable vmaxpu=1.5 vminpu=0.92 daily="RES_3_DO"
 
New "Load.BT_15838_16_M1" bus1="UC15838.3.4" phases=1 conn=delta model=2 kv=0.22 kw = 0.0 pf=0.92 status=variable vmaxpu=1.5 vminpu=0.92 daily="RES_7_DO" 
New "Load.BT_15838_16_M2" bus1="UC15838.3.4" phases=1 conn=delta model=3 kv=0.22 kw = 0.0 pf=0.92 status=variable vmaxpu=1.5 vminpu=0.92 daily="RES_7_DO"
 
New "Load.BT_14653_19_M1" bus1="UC14653.1.2.3.4" phases=3 conn=delta model=2 kv=0.38 kw = 0.0 pf=0.92 status=variable vmaxpu=1.5 vminpu=0.92 daily="RES_3_DO" 
New "Load.BT_14653_19_M2" bus1="UC14653.1.2.3.4" phases=3 conn=delta model=3 kv=0.38 kw = 0.0 pf=0.92 status=variable vmaxpu=1.5 vminpu=0.92 daily="RES_3_DO"
 
New "Load.BT_10919_21_M1" bus1="UC10919.3.4" phases=1 conn=delta model=2 kv=0.22 kw = 0.0 pf=0.92 status=variable vmaxpu=1.5 vminpu=0.92 daily="RES_3_DO" 
New "Load.BT_10919_21_M2" bus1="UC10919.3.4" phases=1 conn=delta model=3 kv=0.22 kw = 0.0 pf=0.92 status=variable vmaxpu=1.5 vminpu=0.92 daily="RES_3_DO"
 
New "Load.BT_16152_22_M1" bus1="UC16152.1.4" phases=1 conn=delta model=2 kv=0.22 kw = 0.0 pf=0.92 status=variable vmaxpu=1.5 vminpu=0.92 daily="RES_7_DO" 
New "Load.BT_16152_22_M2" bus1="UC16152.1.4" phases=1 conn=delta model=3 kv=0.22 kw = 0.0 pf=0.92 status=variable vmaxpu=1.5 vminpu=0.92 daily="RES_7_DO"
 
New "Load.BT_2530_24_M1" bus1="UC2530.1.4" phases=1 conn=delta model=2 kv=0.22 kw = 0.0 pf=0.92 status=variable vmaxpu=1.5 vminpu=0.92 daily="RES_3_DO" 
New "Load.BT_2530_24_M2" bus1="UC2530.1.4" phases=1 conn=delta model=3 kv=0.22 kw = 0.0 pf=0.92 status=variable vmaxpu=1.5 vminpu=0.92 daily="RES_3_DO"
 
New "Load.BT_16140_25_M1" bus1="UC16140.1.2.3.4" phases=3 conn=delta model=2 kv=0.38 kw = 0.0 pf=0.92 status=variable vmaxpu=1.5 vminpu=0.92 daily="RES_3_DO" 
New "Load.BT_16140_25_M2" bus1="UC16140.1.2.3.4" phases=3 conn=delta model=3 kv=0.38 kw = 0.0 pf=0.92 status=variable vmaxpu=1.5 vminpu=0.92 daily="RES_3_DO"
 
New "Load.BT_16156_26_M1" bus1="UC16156.3.4" phases=1 conn=delta model=2 kv=0.22 kw = 0.0 pf=0.92 status=variable vmaxpu=1.5 vminpu=0.92 daily="RES_7_DO" 
New "Load.BT_16156_26_M2" bus1="UC16156.3.4" phases=1 conn=delta model=3 kv=0.22 kw = 0.0 pf=0.92 status=variable vmaxpu=1.5 vminpu=0.92 daily="RES_7_DO"
 
New "Load.BT_16132_28_M1" bus1="UC16132.3.4" phases=1 conn=delta model=2 kv=0.22 kw = 0.0 pf=0.92 status=variable vmaxpu=1.5 vminpu=0.92 daily="COM_5_DO" 
New "Load.BT_16132_28_M2" bus1="UC16132.3.4" phases=1 conn=delta model=3 kv=0.22 kw = 0.0 pf=0.92 status=variable vmaxpu=1.5 vminpu=0.92 daily="COM_5_DO"
 
New "Load.BT_8216_30_M1" bus1="UC8216.3.4" phases=1 conn=delta model=2 kv=0.22 kw = 0.0 pf=0.92 status=variable vmaxpu=1.5 vminpu=0.92 daily="RES_3_DO" 
New "Load.BT_8216_30_M2" bus1="UC8216.3.4" phases=1 conn=delta model=3 kv=0.22 kw = 0.0 pf=0.92 status=variable vmaxpu=1.5 vminpu=0.92 daily="RES_3_DO"
 
New "Load.BT_16139_33_M1" bus1="UC16139.2.4" phases=1 conn=delta model=2 kv=0.22 kw = 0.0 pf=0.92 status=variable vmaxpu=1.5 vminpu=0.92 daily="RES_3_DO" 
New "Load.BT_16139_33_M2" bus1="UC16139.2.4" phases=1 conn=delta model=3 kv=0.22 kw = 0.0 pf=0.92 status=variable vmaxpu=1.5 vminpu=0.92 daily="RES_3_DO"
 
New "Load.BT_16135_34_M1" bus1="UC16135.3.4" phases=1 conn=delta model=2 kv=0.22 kw = 0.0 pf=0.92 status=variable vmaxpu=1.5 vminpu=0.92 daily="RES_3_DO" 
New "Load.BT_16135_34_M2" bus1="UC16135.3.4" phases=1 conn=delta model=3 kv=0.22 kw = 0.0 pf=0.92 status=variable vmaxpu=1.5 vminpu=0.92 daily="RES_3_DO"
 
New "Load.BT_16138_35_M1" bus1="UC16138.3.4" phases=1 conn=delta model=2 kv=0.22 kw = 0.0 pf=0.92 status=variable vmaxpu=1.5 vminpu=0.92 daily="COM_5_DO" 
New "Load.BT_16138_35_M2" bus1="UC16138.3.4" phases=1 conn=delta model=3 kv=0.22 kw = 0.0 pf=0.92 status=variable vmaxpu=1.5 vminpu=0.92 daily="COM_5_DO"
 
New "Load.BT_8555_36_M1" bus1="UC8555.3.4" phases=1 conn=delta model=2 kv=0.22 kw = 0.0 pf=0.92 status=variable vmaxpu=1.5 vminpu=0.92 daily="RES_3_DO" 
New "Load.BT_8555_36_M2" bus1="UC8555.3.4" phases=1 conn=delta model=3 kv=0.22 kw = 0.0 pf=0.92 status=variable vmaxpu=1.5 vminpu=0.92 daily="RES_3_DO"
 
New "Load.BT_15362_38_M1" bus1="UC15362.2.3.4" phases=2 conn=delta model=2 kv=0.38 kw = 0.0 pf=0.92 status=variable vmaxpu=1.5 vminpu=0.92 daily="RES_7_DO" 
New "Load.BT_15362_38_M2" bus1="UC15362.2.3.4" phases=2 conn=delta model=3 kv=0.38 kw = 0.0 pf=0.92 status=variable vmaxpu=1.5 vminpu=0.92 daily="RES_7_DO"
 
New "Load.BT_5102_39_M1" bus1="UC5102.1.4" phases=1 conn=delta model=2 kv=0.22 kw = 0.0 pf=0.92 status=variable vmaxpu=1.5 vminpu=0.92 daily="RES_3_DO" 
New "Load.BT_5102_39_M2" bus1="UC5102.1.4" phases=1 conn=delta model=3 kv=0.22 kw = 0.0 pf=0.92 status=variable vmaxpu=1.5 vminpu=0.92 daily="RES_3_DO"
 
New "Load.BT_7753_40_M1" bus1="UC7753.1.4" phases=1 conn=delta model=2 kv=0.22 kw = 0.0 pf=0.92 status=variable vmaxpu=1.5 vminpu=0.92 daily="COM_5_DO" 
New "Load.BT_7753_40_M2" bus1="UC7753.1.4" phases=1 conn=delta model=3 kv=0.22 kw = 0.0 pf=0.92 status=variable vmaxpu=1.5 vminpu=0.92 daily="COM_5_DO"
 
New "Load.BT_12439_42_M1" bus1="UC12439.3.4" phases=1 conn=delta model=2 kv=0.22 kw = 0.1345686981836218 pf=0.92 status=variable vmaxpu=1.5 vminpu=0.92 daily="RES_3_DO" 
New "Load.BT_12439_42_M2" bus1="UC12439.3.4" phases=1 conn=delta model=3 kv=0.22 kw = 0.1345686981836218 pf=0.92 status=variable vmaxpu=1.5 vminpu=0.92 daily="RES_3_DO"
 
New "Load.BT_9732_43_M1" bus1="UC9732.1.4" phases=1 conn=delta model=2 kv=0.22 kw = 0.04497532244225364 pf=0.92 status=variable vmaxpu=1.5 vminpu=0.92 daily="RES_2_DO" 
New "Load.BT_9732_43_M2" bus1="UC9732.1.4" phases=1 conn=delta model=3 kv=0.22 kw = 0.04497532244225364 pf=0.92 status=variable vmaxpu=1.5 vminpu=0.92 daily="RES_2_DO"
 
New "Load.BT_1855_44_M1" bus1="UC1855.1.4" phases=1 conn=delta model=2 kv=0.22 kw = 0.2567945829767385 pf=0.92 status=variable vmaxpu=1.5 vminpu=0.92 daily="RES_2_DO" 
New "Load.BT_1855_44_M2" bus1="UC1855.1.4" phases=1 conn=delta model=3 kv=0.22 kw = 0.2567945829767385 pf=0.92 status=variable vmaxpu=1.5 vminpu=0.92 daily="RES_2_DO"
 
New "Load.BT_1136_45_M1" bus1="UC1136.2.4" phases=1 conn=delta model=2 kv=0.22 kw = 0.14786114931409947 pf=0.92 status=variable vmaxpu=1.5 vminpu=0.92 daily="RES_7_DO" 
New "Load.BT_1136_45_M2" bus1="UC1136.2.4" phases=1 conn=delta model=3 kv=0.22 kw = 0.14786114931409947 pf=0.92 status=variable vmaxpu=1.5 vminpu=0.92 daily="RES_7_DO"
 
New "Load.BT_9732_46_M1" bus1="UC9732.2.4" phases=1 conn=delta model=2 kv=0.22 kw = 0.09649157882911023 pf=0.92 status=variable vmaxpu=1.5 vminpu=0.92 daily="RES_9_DO" 
New "Load.BT_9732_46_M2" bus1="UC9732.2.4" phases=1 conn=delta model=3 kv=0.22 kw = 0.09649157882911023 pf=0.92 status=variable vmaxpu=1.5 vminpu=0.92 daily="RES_9_DO"
 
New "Load.BT_15851_48_M1" bus1="UC15851.3.4" phases=1 conn=delta model=2 kv=0.22 kw = 0.07046507897000052 pf=0.92 status=variable vmaxpu=1.5 vminpu=0.92 daily="RES_7_DO" 
New "Load.BT_15851_48_M2" bus1="UC15851.3.4" phases=1 conn=delta model=3 kv=0.22 kw = 0.07046507897000052 pf=0.92 status=variable vmaxpu=1.5 vminpu=0.92 daily="RES_7_DO"
 
New "Load.BT_15850_49_M1" bus1="UC15850.3.1.4" phases=2 conn=delta model=2 kv=0.38 kw = 0.011533608968748766 pf=0.92 status=variable vmaxpu=1.5 vminpu=0.92 daily="RES_1_DO" 
New "Load.BT_15850_49_M2" bus1="UC15850.3.1.4" phases=2 conn=delta model=3 kv=0.38 kw = 0.011533608968748766 pf=0.92 status=variable vmaxpu=1.5 vminpu=0.92 daily="RES_1_DO"
 
New "Load.BT_15688_53_M1" bus1="UC15688.1.4" phases=1 conn=delta model=2 kv=0.22 kw = 0.0 pf=0.92 status=variable vmaxpu=1.5 vminpu=0.92 daily="RES_3_DO" 
New "Load.BT_15688_53_M2" bus1="UC15688.1.4" phases=1 conn=delta model=3 kv=0.22 kw = 0.0 pf=0.92 status=variable vmaxpu=1.5 vminpu=0.92 daily="RES_3_DO"
 
New "Load.BT_10153_54_M1" bus1="UC10153.2.4" phases=1 conn=delta model=2 kv=0.22 kw = 0.6419588716628514 pf=0.92 status=variable vmaxpu=1.5 vminpu=0.92 daily="RES_3_DO" 
New "Load.BT_10153_54_M2" bus1="UC10153.2.4" phases=1 conn=delta model=3 kv=0.22 kw = 0.6419588716628514 pf=0.92 status=variable vmaxpu=1.5 vminpu=0.92 daily="RES_3_DO"
 
New "Load.BT_15497_56_M1" bus1="UC15497.1.4" phases=1 conn=delta model=2 kv=0.22 kw = 0.33949114359636623 pf=0.92 status=variable vmaxpu=1.5 vminpu=0.92 daily="RES_2_DO" 
New "Load.BT_15497_56_M2" bus1="UC15497.1.4" phases=1 conn=delta model=3 kv=0.22 kw = 0.33949114359636623 pf=0.92 status=variable vmaxpu=1.5 vminpu=0.92 daily="RES_2_DO"
 
New "Load.BT_15497_57_M1" bus1="UC15497.3.4" phases=1 conn=delta model=2 kv=0.22 kw = 0.030467153912494403 pf=0.92 status=variable vmaxpu=1.5 vminpu=0.92 daily="RES_2_DO" 
New "Load.BT_15497_57_M2" bus1="UC15497.3.4" phases=1 conn=delta model=3 kv=0.22 kw = 0.030467153912494403 pf=0.92 status=variable vmaxpu=1.5 vminpu=0.92 daily="RES_2_DO"
 
New "Load.BT_5544_59_M1" bus1="UC5544.2.4" phases=1 conn=delta model=2 kv=0.22 kw = 0.477318744629079 pf=0.92 status=variable vmaxpu=1.5 vminpu=0.92 daily="RES_2_DO" 
New "Load.BT_5544_59_M2" bus1="UC5544.2.4" phases=1 conn=delta model=3 kv=0.22 kw = 0.477318744629079 pf=0.92 status=variable vmaxpu=1.5 vminpu=0.92 daily="RES_2_DO"
 
New "Load.BT_15499_60_M1" bus1="UC15499.3.4" phases=1 conn=delta model=2 kv=0.22 kw = 0.12041779879700168 pf=0.92 status=variable vmaxpu=1.5 vminpu=0.92 daily="RES_2_DO" 
New "Load.BT_15499_60_M2" bus1="UC15499.3.4" phases=1 conn=delta model=3 kv=0.22 kw = 0.12041779879700168 pf=0.92 status=variable vmaxpu=1.5 vminpu=0.92 daily="RES_2_DO"
 
New "Load.BT_8603_62_M1" bus1="UC8603.1.2.3.4" phases=3 conn=delta model=2 kv=0.38 kw = 0.5667676920653782 pf=0.92 status=variable vmaxpu=1.5 vminpu=0.92 daily="COM_1_DO" 
New "Load.BT_8603_62_M2" bus1="UC8603.1.2.3.4" phases=3 conn=delta model=3 kv=0.38 kw = 0.5667676920653782 pf=0.92 status=variable vmaxpu=1.5 vminpu=0.92 daily="COM_1_DO"
 
New "Load.BT_15509_63_M1" bus1="UC15509.1.2.4" phases=2 conn=delta model=2 kv=0.38 kw = 0.007254084264879619 pf=0.92 status=variable vmaxpu=1.5 vminpu=0.92 daily="RES_2_DO" 
New "Load.BT_15509_63_M2" bus1="UC15509.1.2.4" phases=2 conn=delta model=3 kv=0.38 kw = 0.007254084264879619 pf=0.92 status=variable vmaxpu=1.5 vminpu=0.92 daily="RES_2_DO"
 
New "Load.BT_15510_65_M1" bus1="UC15510.1.2.3.4" phases=3 conn=delta model=2 kv=0.38 kw = 0.40483406576098446 pf=0.92 status=variable vmaxpu=1.5 vminpu=0.92 daily="COM_1_DO" 
New "Load.BT_15510_65_M2" bus1="UC15510.1.2.3.4" phases=3 conn=delta model=3 kv=0.38 kw = 0.40483406576098446 pf=0.92 status=variable vmaxpu=1.5 vminpu=0.92 daily="COM_1_DO"
 
New "Load.BT_6671_66_M1" bus1="UC6671.1.4" phases=1 conn=delta model=2 kv=0.22 kw = 0.07979492691367582 pf=0.92 status=variable vmaxpu=1.5 vminpu=0.92 daily="RES_2_DO" 
New "Load.BT_6671_66_M2" bus1="UC6671.1.4" phases=1 conn=delta model=3 kv=0.22 kw = 0.07979492691367582 pf=0.92 status=variable vmaxpu=1.5 vminpu=0.92 daily="RES_2_DO"
 
New "Load.BT_9626_67_M1" bus1="UC9626.3.4" phases=1 conn=delta model=2 kv=0.22 kw = 0.18860619088687014 pf=0.92 status=variable vmaxpu=1.5 vminpu=0.92 daily="RES_2_DO" 
New "Load.BT_9626_67_M2" bus1="UC9626.3.4" phases=1 conn=delta model=3 kv=0.22 kw = 0.18860619088687014 pf=0.92 status=variable vmaxpu=1.5 vminpu=0.92 daily="RES_2_DO"
 
New "Load.BT_13002_68_M1" bus1="UC13002.3.4" phases=1 conn=delta model=2 kv=0.22 kw = 0.03574210670682565 pf=0.92 status=variable vmaxpu=1.5 vminpu=0.92 daily="COM_1_DO" 
New "Load.BT_13002_68_M2" bus1="UC13002.3.4" phases=1 conn=delta model=3 kv=0.22 kw = 0.03574210670682565 pf=0.92 status=variable vmaxpu=1.5 vminpu=0.92 daily="COM_1_DO"
 
New "Load.BT_13331_69_M1" bus1="UC13331.1.4" phases=1 conn=delta model=2 kv=0.22 kw = 0.004352450558927772 pf=0.92 status=variable vmaxpu=1.5 vminpu=0.92 daily="RES_2_DO" 
New "Load.BT_13331_69_M2" bus1="UC13331.1.4" phases=1 conn=delta model=3 kv=0.22 kw = 0.004352450558927772 pf=0.92 status=variable vmaxpu=1.5 vminpu=0.92 daily="RES_2_DO"
 
New "Load.BT_14890_70_M1" bus1="UC14890.1.2.3.4" phases=3 conn=delta model=2 kv=0.38 kw = 0.09285227859045914 pf=0.92 status=variable vmaxpu=1.5 vminpu=0.92 daily="RES_2_DO" 
New "Load.BT_14890_70_M2" bus1="UC14890.1.2.3.4" phases=3 conn=delta model=3 kv=0.38 kw = 0.09285227859045914 pf=0.92 status=variable vmaxpu=1.5 vminpu=0.92 daily="RES_2_DO"
 
New "Load.BT_14890_71_M1" bus1="UC14890.1.2.3.4" phases=3 conn=delta model=2 kv=0.38 kw = 0.22487661221126823 pf=0.92 status=variable vmaxpu=1.5 vminpu=0.92 daily="RES_2_DO" 
New "Load.BT_14890_71_M2" bus1="UC14890.1.2.3.4" phases=3 conn=delta model=3 kv=0.38 kw = 0.22487661221126823 pf=0.92 status=variable vmaxpu=1.5 vminpu=0.92 daily="RES_2_DO"
 
New "Load.BT_15137_72_M1" bus1="UC15137.1.2.3.4" phases=3 conn=delta model=2 kv=0.38 kw = 2.6106326510965108 pf=0.92 status=variable vmaxpu=1.5 vminpu=0.92 daily="IND_1_DO" 
New "Load.BT_15137_72_M2" bus1="UC15137.1.2.3.4" phases=3 conn=delta model=3 kv=0.38 kw = 2.6106326510965108 pf=0.92 status=variable vmaxpu=1.5 vminpu=0.92 daily="IND_1_DO"
 
New "Load.BT_7113_73_M1" bus1="UC7113.1.4" phases=1 conn=delta model=2 kv=0.22 kw = 0.229229062770196 pf=0.92 status=variable vmaxpu=1.5 vminpu=0.92 daily="RES_2_DO" 
New "Load.BT_7113_73_M2" bus1="UC7113.1.4" phases=1 conn=delta model=3 kv=0.22 kw = 0.229229062770196 pf=0.92 status=variable vmaxpu=1.5 vminpu=0.92 daily="RES_2_DO"
 
New "Load.BT_9718_74_M1" bus1="UC9718.1.4" phases=1 conn=delta model=2 kv=0.22 kw = 0.053680223560109194 pf=0.92 status=variable vmaxpu=1.5 vminpu=0.92 daily="RES_2_DO" 
New "Load.BT_9718_74_M2" bus1="UC9718.1.4" phases=1 conn=delta model=3 kv=0.22 kw = 0.053680223560109194 pf=0.92 status=variable vmaxpu=1.5 vminpu=0.92 daily="RES_2_DO"
 
New "Load.BT_10594_76_M1" bus1="UC10594.3.1.4" phases=2 conn=delta model=2 kv=0.38 kw = 0.15498241394588327 pf=0.92 status=variable vmaxpu=1.5 vminpu=0.92 daily="RES_11_DO" 
New "Load.BT_10594_76_M2" bus1="UC10594.3.1.4" phases=2 conn=delta model=3 kv=0.38 kw = 0.15498241394588327 pf=0.92 status=variable vmaxpu=1.5 vminpu=0.92 daily="RES_11_DO"
 
New "Load.BT_15149_77_M1" bus1="UC15149.1.2.4" phases=2 conn=delta model=2 kv=0.38 kw = 0.16539312123925534 pf=0.92 status=variable vmaxpu=1.5 vminpu=0.92 daily="RES_2_DO" 
New "Load.BT_15149_77_M2" bus1="UC15149.1.2.4" phases=2 conn=delta model=3 kv=0.38 kw = 0.16539312123925534 pf=0.92 status=variable vmaxpu=1.5 vminpu=0.92 daily="RES_2_DO"
 
New "Load.BT_13667_78_M1" bus1="UC13667.1.2.3.4" phases=3 conn=delta model=2 kv=0.38 kw = 0.21370556736803437 pf=0.92 status=variable vmaxpu=1.5 vminpu=0.92 daily="RES_7_DO" 
New "Load.BT_13667_78_M2" bus1="UC13667.1.2.3.4" phases=3 conn=delta model=3 kv=0.38 kw = 0.21370556736803437 pf=0.92 status=variable vmaxpu=1.5 vminpu=0.92 daily="RES_7_DO"
 
New "Load.BT_15154_79_M1" bus1="UC15154.3.4" phases=1 conn=delta model=2 kv=0.22 kw = 0.36394943856940554 pf=0.92 status=variable vmaxpu=1.5 vminpu=0.92 daily="RES_1_DO" 
New "Load.BT_15154_79_M2" bus1="UC15154.3.4" phases=1 conn=delta model=3 kv=0.22 kw = 0.36394943856940554 pf=0.92 status=variable vmaxpu=1.5 vminpu=0.92 daily="RES_1_DO"
 
New "Load.BT_15150_80_M1" bus1="UC15150.1.2.3.4" phases=3 conn=delta model=2 kv=0.38 kw = 0.30322072227196817 pf=0.92 status=variable vmaxpu=1.5 vminpu=0.92 daily="RES_2_DO" 
New "Load.BT_15150_80_M2" bus1="UC15150.1.2.3.4" phases=3 conn=delta model=3 kv=0.38 kw = 0.30322072227196817 pf=0.92 status=variable vmaxpu=1.5 vminpu=0.92 daily="RES_2_DO"
 
New "Load.BT_14783_82_M1" bus1="UC14783.1.2.3.4" phases=3 conn=delta model=2 kv=0.38 kw = 0.36415503009695693 pf=0.92 status=variable vmaxpu=1.5 vminpu=0.92 daily="RES_2_DO" 
New "Load.BT_14783_82_M2" bus1="UC14783.1.2.3.4" phases=3 conn=delta model=3 kv=0.38 kw = 0.36415503009695693 pf=0.92 status=variable vmaxpu=1.5 vminpu=0.92 daily="RES_2_DO"
 
New "Load.BT_10551_83_M1" bus1="UC10551.2.4" phases=1 conn=delta model=2 kv=0.22 kw = 0.21329262909383936 pf=0.92 status=variable vmaxpu=1.5 vminpu=0.92 daily="RES_11_DO" 
New "Load.BT_10551_83_M2" bus1="UC10551.2.4" phases=1 conn=delta model=3 kv=0.22 kw = 0.21329262909383936 pf=0.92 status=variable vmaxpu=1.5 vminpu=0.92 daily="RES_11_DO"
 
New "Load.BT_15130_85_M1" bus1="UC15130.3.4" phases=1 conn=delta model=2 kv=0.22 kw = 0.01458861498237782 pf=0.92 status=variable vmaxpu=1.5 vminpu=0.92 daily="COM_1_DO" 
New "Load.BT_15130_85_M2" bus1="UC15130.3.4" phases=1 conn=delta model=3 kv=0.22 kw = 0.01458861498237782 pf=0.92 status=variable vmaxpu=1.5 vminpu=0.92 daily="COM_1_DO"
 
New "Load.BT_11345_91_M1" bus1="UC11345.3.4" phases=1 conn=delta model=2 kv=0.22 kw = 0.22186158303210374 pf=0.92 status=variable vmaxpu=1.5 vminpu=0.92 daily="RES_8_DO" 
New "Load.BT_11345_91_M2" bus1="UC11345.3.4" phases=1 conn=delta model=3 kv=0.22 kw = 0.22186158303210374 pf=0.92 status=variable vmaxpu=1.5 vminpu=0.92 daily="RES_8_DO"
 
New "Load.BT_1871_94_M1" bus1="UC1871.2.4" phases=1 conn=delta model=2 kv=0.22 kw = 0.33081296450258574 pf=0.92 status=variable vmaxpu=1.5 vminpu=0.92 daily="RES_13_DO" 
New "Load.BT_1871_94_M2" bus1="UC1871.2.4" phases=1 conn=delta model=3 kv=0.22 kw = 0.33081296450258574 pf=0.92 status=variable vmaxpu=1.5 vminpu=0.92 daily="RES_13_DO"
 
New "Load.BT_15581_97_M1" bus1="UC15581.1.2.3.4" phases=3 conn=delta model=2 kv=0.38 kw = 0.0 pf=0.92 status=variable vmaxpu=1.5 vminpu=0.92 daily="RES_3_DO" 
New "Load.BT_15581_97_M2" bus1="UC15581.1.2.3.4" phases=3 conn=delta model=3 kv=0.38 kw = 0.0 pf=0.92 status=variable vmaxpu=1.5 vminpu=0.92 daily="RES_3_DO"
 
New "Load.BT_14653_98_M1" bus1="UC14653.1.2.3.4" phases=3 conn=delta model=2 kv=0.38 kw = 0.0 pf=0.92 status=variable vmaxpu=1.5 vminpu=0.92 daily="RES_3_DO" 
New "Load.BT_14653_98_M2" bus1="UC14653.1.2.3.4" phases=3 conn=delta model=3 kv=0.38 kw = 0.0 pf=0.92 status=variable vmaxpu=1.5 vminpu=0.92 daily="RES_3_DO"
 
New "Load.BT_8216_99_M1" bus1="UC8216.3.4" phases=1 conn=delta model=2 kv=0.22 kw = 0.026472530790220678 pf=0.92 status=variable vmaxpu=1.5 vminpu=0.92 daily="RES_3_DO" 
New "Load.BT_8216_99_M2" bus1="UC8216.3.4" phases=1 conn=delta model=3 kv=0.22 kw = 0.026472530790220678 pf=0.92 status=variable vmaxpu=1.5 vminpu=0.92 daily="RES_3_DO"
 
New "Load.BT_16125_100_M1" bus1="UC16125.1.2.3.4" phases=3 conn=delta model=2 kv=0.38 kw = 0.0 pf=0.92 status=variable vmaxpu=1.5 vminpu=0.92 daily="RES_7_DO" 
New "Load.BT_16125_100_M2" bus1="UC16125.1.2.3.4" phases=3 conn=delta model=3 kv=0.38 kw = 0.0 pf=0.92 status=variable vmaxpu=1.5 vminpu=0.92 daily="RES_7_DO"
 
New "Load.BT_16120_101_M1" bus1="UC16120.1.2.3.4" phases=3 conn=delta model=2 kv=0.38 kw = 0.0 pf=0.92 status=variable vmaxpu=1.5 vminpu=0.92 daily="RES_3_DO" 
New "Load.BT_16120_101_M2" bus1="UC16120.1.2.3.4" phases=3 conn=delta model=3 kv=0.38 kw = 0.0 pf=0.92 status=variable vmaxpu=1.5 vminpu=0.92 daily="RES_3_DO"
 
New "Load.BT_16117_104_M1" bus1="UC16117.1.4" phases=1 conn=delta model=2 kv=0.22 kw = 0.0 pf=0.92 status=variable vmaxpu=1.5 vminpu=0.92 daily="RES_3_DO" 
New "Load.BT_16117_104_M2" bus1="UC16117.1.4" phases=1 conn=delta model=3 kv=0.22 kw = 0.0 pf=0.92 status=variable vmaxpu=1.5 vminpu=0.92 daily="RES_3_DO"
 
New "Load.BT_2901_106_M1" bus1="UC2901.2.4" phases=1 conn=delta model=2 kv=0.22 kw = 0.0 pf=0.92 status=variable vmaxpu=1.5 vminpu=0.92 daily="RES_3_DO" 
New "Load.BT_2901_106_M2" bus1="UC2901.2.4" phases=1 conn=delta model=3 kv=0.22 kw = 0.0 pf=0.92 status=variable vmaxpu=1.5 vminpu=0.92 daily="RES_3_DO"
 
New "Load.BT_8431_107_M1" bus1="UC8431.2.4" phases=1 conn=delta model=2 kv=0.22 kw = 0.0 pf=0.92 status=variable vmaxpu=1.5 vminpu=0.92 daily="RES_3_DO" 
New "Load.BT_8431_107_M2" bus1="UC8431.2.4" phases=1 conn=delta model=3 kv=0.22 kw = 0.0 pf=0.92 status=variable vmaxpu=1.5 vminpu=0.92 daily="RES_3_DO"
 
New "Load.BT_16128_108_M1" bus1="UC16128.1.4" phases=1 conn=delta model=2 kv=0.22 kw = 0.0 pf=0.92 status=variable vmaxpu=1.5 vminpu=0.92 daily="RES_7_DO" 
New "Load.BT_16128_108_M2" bus1="UC16128.1.4" phases=1 conn=delta model=3 kv=0.22 kw = 0.0 pf=0.92 status=variable vmaxpu=1.5 vminpu=0.92 daily="RES_7_DO"
 
New "Load.BT_15685_113_M1" bus1="UC15685.1.2.3.4" phases=3 conn=delta model=2 kv=0.38 kw = 0.12035607360461699 pf=0.92 status=variable vmaxpu=1.5 vminpu=0.92 daily="COM_1_DO" 
New "Load.BT_15685_113_M2" bus1="UC15685.1.2.3.4" phases=3 conn=delta model=3 kv=0.38 kw = 0.12035607360461699 pf=0.92 status=variable vmaxpu=1.5 vminpu=0.92 daily="COM_1_DO"
 
New "Load.BT_10153_115_M1" bus1="UC10153.2.4" phases=1 conn=delta model=2 kv=0.22 kw = 0.19295864144579788 pf=0.92 status=variable vmaxpu=1.5 vminpu=0.92 daily="RES_2_DO" 
New "Load.BT_10153_115_M2" bus1="UC10153.2.4" phases=1 conn=delta model=3 kv=0.22 kw = 0.19295864144579788 pf=0.92 status=variable vmaxpu=1.5 vminpu=0.92 daily="RES_2_DO"
 
New "Load.BT_15838_116_M1" bus1="UC15838.2.4" phases=1 conn=delta model=2 kv=0.22 kw = 0.0 pf=0.92 status=variable vmaxpu=1.5 vminpu=0.92 daily="RES_2_DO" 
New "Load.BT_15838_116_M2" bus1="UC15838.2.4" phases=1 conn=delta model=3 kv=0.22 kw = 0.0 pf=0.92 status=variable vmaxpu=1.5 vminpu=0.92 daily="RES_2_DO"
 
New "Load.BT_15839_117_M1" bus1="UC15839.2.3.4" phases=2 conn=delta model=2 kv=0.38 kw = 0.0 pf=0.92 status=variable vmaxpu=1.5 vminpu=0.92 daily="RES_9_DO" 
New "Load.BT_15839_117_M2" bus1="UC15839.2.3.4" phases=2 conn=delta model=3 kv=0.38 kw = 0.0 pf=0.92 status=variable vmaxpu=1.5 vminpu=0.92 daily="RES_9_DO"
 
New "Load.BT_14029_118_M1" bus1="UC14029.1.4" phases=1 conn=delta model=2 kv=0.22 kw = 0.23938478074102745 pf=0.92 status=variable vmaxpu=1.5 vminpu=0.92 daily="RES_2_DO" 
New "Load.BT_14029_118_M2" bus1="UC14029.1.4" phases=1 conn=delta model=3 kv=0.22 kw = 0.23938478074102745 pf=0.92 status=variable vmaxpu=1.5 vminpu=0.92 daily="RES_2_DO"
 
New "Load.BT_15841_120_M1" bus1="UC15841.2.4" phases=1 conn=delta model=2 kv=0.22 kw = 0.009731945093553757 pf=0.92 status=variable vmaxpu=1.5 vminpu=0.92 daily="RES_4_DO" 
New "Load.BT_15841_120_M2" bus1="UC15841.2.4" phases=1 conn=delta model=3 kv=0.22 kw = 0.009731945093553757 pf=0.92 status=variable vmaxpu=1.5 vminpu=0.92 daily="RES_4_DO"
 
New "Load.BT_358_126_M1" bus1="UC358.3.1.4" phases=2 conn=delta model=2 kv=0.38 kw = 0.30417262238257753 pf=0.92 status=variable vmaxpu=1.5 vminpu=0.92 daily="COM_1_DO" 
New "Load.BT_358_126_M2" bus1="UC358.3.1.4" phases=2 conn=delta model=3 kv=0.38 kw = 0.30417262238257753 pf=0.92 status=variable vmaxpu=1.5 vminpu=0.92 daily="COM_1_DO"
 
New "Load.BT_6892_128_M1" bus1="UC6892.2.4" phases=1 conn=delta model=2 kv=0.22 kw = 0.10445881341426654 pf=0.92 status=variable vmaxpu=1.5 vminpu=0.92 daily="RES_2_DO" 
New "Load.BT_6892_128_M2" bus1="UC6892.2.4" phases=1 conn=delta model=3 kv=0.22 kw = 0.10445881341426654 pf=0.92 status=variable vmaxpu=1.5 vminpu=0.92 daily="RES_2_DO"
 
New "Load.BT_14783_129_M1" bus1="UC14783.1.2.3.4" phases=3 conn=delta model=2 kv=0.38 kw = 0.18715537403389418 pf=0.92 status=variable vmaxpu=1.5 vminpu=0.92 daily="RES_2_DO" 
New "Load.BT_14783_129_M2" bus1="UC14783.1.2.3.4" phases=3 conn=delta model=3 kv=0.38 kw = 0.18715537403389418 pf=0.92 status=variable vmaxpu=1.5 vminpu=0.92 daily="RES_2_DO"
 
New "Load.BT_15490_130_M1" bus1="UC15490.2.4" phases=1 conn=delta model=2 kv=0.22 kw = 0.2495404987118589 pf=0.92 status=variable vmaxpu=1.5 vminpu=0.92 daily="RES_2_DO" 
New "Load.BT_15490_130_M2" bus1="UC15490.2.4" phases=1 conn=delta model=3 kv=0.22 kw = 0.2495404987118589 pf=0.92 status=variable vmaxpu=1.5 vminpu=0.92 daily="RES_2_DO"
 
New "Load.BT_15492_131_M1" bus1="UC15492.1.2.3.4" phases=3 conn=delta model=2 kv=0.38 kw = 0.04932777300118142 pf=0.92 status=variable vmaxpu=1.5 vminpu=0.92 daily="RES_2_DO" 
New "Load.BT_15492_131_M2" bus1="UC15492.1.2.3.4" phases=3 conn=delta model=3 kv=0.38 kw = 0.04932777300118142 pf=0.92 status=variable vmaxpu=1.5 vminpu=0.92 daily="RES_2_DO"
 
New "Load.BT_15495_133_M1" bus1="UC15495.1.2.3.4" phases=3 conn=delta model=2 kv=0.38 kw = 0.11452062761166587 pf=0.92 status=variable vmaxpu=1.5 vminpu=0.92 daily="COM_1_DO" 
New "Load.BT_15495_133_M2" bus1="UC15495.1.2.3.4" phases=3 conn=delta model=3 kv=0.38 kw = 0.11452062761166587 pf=0.92 status=variable vmaxpu=1.5 vminpu=0.92 daily="COM_1_DO"
 
New "Load.BT_15493_134_M1" bus1="UC15493.2.4" phases=1 conn=delta model=2 kv=0.22 kw = 0.21907334479936455 pf=0.92 status=variable vmaxpu=1.5 vminpu=0.92 daily="RES_2_DO" 
New "Load.BT_15493_134_M2" bus1="UC15493.2.4" phases=1 conn=delta model=3 kv=0.22 kw = 0.21907334479936455 pf=0.92 status=variable vmaxpu=1.5 vminpu=0.92 daily="RES_2_DO"
 
New "Load.BT_15496_135_M1" bus1="UC15496.3.4" phases=1 conn=delta model=2 kv=0.38 kw = 0.013057351676783317 pf=0.92 status=variable vmaxpu=1.5 vminpu=0.92 daily="RES_2_DO" 
New "Load.BT_15496_135_M2" bus1="UC15496.3.4" phases=1 conn=delta model=3 kv=0.38 kw = 0.013057351676783317 pf=0.92 status=variable vmaxpu=1.5 vminpu=0.92 daily="RES_2_DO"
 
New "Load.BT_14400_138_M1" bus1="UC14400.1.4" phases=1 conn=delta model=2 kv=0.22 kw = 0.11316371453212207 pf=0.92 status=variable vmaxpu=1.5 vminpu=0.92 daily="RES_2_DO" 
New "Load.BT_14400_138_M2" bus1="UC14400.1.4" phases=1 conn=delta model=3 kv=0.22 kw = 0.11316371453212207 pf=0.92 status=variable vmaxpu=1.5 vminpu=0.92 daily="RES_2_DO"
 
New "Load.BT_6077_139_M1" bus1="UC6077.1.4" phases=1 conn=delta model=2 kv=0.22 kw = 0.24083559759400336 pf=0.92 status=variable vmaxpu=1.5 vminpu=0.92 daily="RES_2_DO" 
New "Load.BT_6077_139_M2" bus1="UC6077.1.4" phases=1 conn=delta model=3 kv=0.22 kw = 0.24083559759400336 pf=0.92 status=variable vmaxpu=1.5 vminpu=0.92 daily="RES_2_DO"
 
New "Load.BT_7595_141_M1" bus1="UC7595.2.3.4" phases=2 conn=delta model=2 kv=0.38 kw = 0.2980326290862317 pf=0.92 status=variable vmaxpu=1.5 vminpu=0.92 daily="RES_7_DO" 
New "Load.BT_7595_141_M2" bus1="UC7595.2.3.4" phases=2 conn=delta model=3 kv=0.38 kw = 0.2980326290862317 pf=0.92 status=variable vmaxpu=1.5 vminpu=0.92 daily="RES_7_DO"
 
New "Load.BT_10551_142_M1" bus1="UC10551.3.4" phases=1 conn=delta model=2 kv=0.22 kw = 0.187206480211859 pf=0.92 status=variable vmaxpu=1.5 vminpu=0.92 daily="RES_11_DO" 
New "Load.BT_10551_142_M2" bus1="UC10551.3.4" phases=1 conn=delta model=3 kv=0.22 kw = 0.187206480211859 pf=0.92 status=variable vmaxpu=1.5 vminpu=0.92 daily="RES_11_DO"
 
New "Load.BT_8865_145_M1" bus1="UC8865.3.4" phases=1 conn=delta model=2 kv=0.22 kw = 0.6106255969776895 pf=0.92 status=variable vmaxpu=1.5 vminpu=0.92 daily="RES_13_DO" 
New "Load.BT_8865_145_M2" bus1="UC8865.3.4" phases=1 conn=delta model=3 kv=0.22 kw = 0.6106255969776895 pf=0.92 status=variable vmaxpu=1.5 vminpu=0.92 daily="RES_13_DO"
 
New "Load.BT_5847_147_M1" bus1="UC5847.2.4" phases=1 conn=delta model=2 kv=0.22 kw = 0.24083559759400336 pf=0.92 status=variable vmaxpu=1.5 vminpu=0.92 daily="RES_2_DO" 
New "Load.BT_5847_147_M2" bus1="UC5847.2.4" phases=1 conn=delta model=3 kv=0.22 kw = 0.24083559759400336 pf=0.92 status=variable vmaxpu=1.5 vminpu=0.92 daily="RES_2_DO"
 
New "Load.BT_8287_148_M1" bus1="UC8287.2.4" phases=1 conn=delta model=2 kv=0.22 kw = 0.35450334407178097 pf=0.92 status=variable vmaxpu=1.5 vminpu=0.92 daily="COM_1_DO" 
New "Load.BT_8287_148_M2" bus1="UC8287.2.4" phases=1 conn=delta model=3 kv=0.22 kw = 0.35450334407178097 pf=0.92 status=variable vmaxpu=1.5 vminpu=0.92 daily="COM_1_DO"
 
New "Load.BT_14783_149_M1" bus1="UC14783.1.2.3.4" phases=3 conn=delta model=2 kv=0.38 kw = 0.1392784178856887 pf=0.92 status=variable vmaxpu=1.5 vminpu=0.92 daily="RES_2_DO" 
New "Load.BT_14783_149_M2" bus1="UC14783.1.2.3.4" phases=3 conn=delta model=3 kv=0.38 kw = 0.1392784178856887 pf=0.92 status=variable vmaxpu=1.5 vminpu=0.92 daily="RES_2_DO"
 
New "Load.BT_8105_150_M1" bus1="UC8105.2.4" phases=1 conn=delta model=2 kv=0.22 kw = 0.05251901393656015 pf=0.92 status=variable vmaxpu=1.5 vminpu=0.92 daily="COM_1_DO" 
New "Load.BT_8105_150_M2" bus1="UC8105.2.4" phases=1 conn=delta model=3 kv=0.22 kw = 0.05251901393656015 pf=0.92 status=variable vmaxpu=1.5 vminpu=0.92 daily="COM_1_DO"
 
New "Load.BT_14783_151_M1" bus1="UC14783.1.2.3.4" phases=3 conn=delta model=2 kv=0.38 kw = 0.8223493604052926 pf=0.92 status=variable vmaxpu=1.5 vminpu=0.92 daily="RES_4_DO" 
New "Load.BT_14783_151_M2" bus1="UC14783.1.2.3.4" phases=3 conn=delta model=3 kv=0.38 kw = 0.8223493604052926 pf=0.92 status=variable vmaxpu=1.5 vminpu=0.92 daily="RES_4_DO"
 
New "Load.BT_11184_154_M1" bus1="UC11184.3.4" phases=1 conn=delta model=2 kv=0.22 kw = 0.18413752151986132 pf=0.92 status=variable vmaxpu=1.5 vminpu=0.92 daily="RES_11_DO" 
New "Load.BT_11184_154_M2" bus1="UC11184.3.4" phases=1 conn=delta model=3 kv=0.22 kw = 0.18413752151986132 pf=0.92 status=variable vmaxpu=1.5 vminpu=0.92 daily="RES_11_DO"
 
New "Load.BT_14890_155_M1" bus1="UC14890.1.2.3.4" phases=3 conn=delta model=2 kv=0.38 kw = 0.08432706171819734 pf=0.92 status=variable vmaxpu=1.5 vminpu=0.92 daily="RES_7_DO" 
New "Load.BT_14890_155_M2" bus1="UC14890.1.2.3.4" phases=3 conn=delta model=3 kv=0.38 kw = 0.08432706171819734 pf=0.92 status=variable vmaxpu=1.5 vminpu=0.92 daily="RES_7_DO"
 
New "Load.BT_15109_157_M1" bus1="UC15109.1.4" phases=1 conn=delta model=2 kv=0.22 kw = 0.22298310672914282 pf=0.92 status=variable vmaxpu=1.5 vminpu=0.92 daily="RES_1_DO" 
New "Load.BT_15109_157_M2" bus1="UC15109.1.4" phases=1 conn=delta model=3 kv=0.22 kw = 0.22298310672914282 pf=0.92 status=variable vmaxpu=1.5 vminpu=0.92 daily="RES_1_DO"
 
New "Load.BT_10549_159_M1" bus1="UC10549.2.4" phases=1 conn=delta model=2 kv=0.22 kw = 0.003647153745594455 pf=0.92 status=variable vmaxpu=1.5 vminpu=0.92 daily="COM_1_DO" 
New "Load.BT_10549_159_M2" bus1="UC10549.2.4" phases=1 conn=delta model=3 kv=0.22 kw = 0.003647153745594455 pf=0.92 status=variable vmaxpu=1.5 vminpu=0.92 daily="COM_1_DO"
 
New "Load.BT_15090_162_M1" bus1="UC15090.3.4" phases=1 conn=delta model=2 kv=0.22 kw = 0.30002201562250097 pf=0.92 status=variable vmaxpu=1.5 vminpu=0.92 daily="RES_3_DO" 
New "Load.BT_15090_162_M2" bus1="UC15090.3.4" phases=1 conn=delta model=3 kv=0.22 kw = 0.30002201562250097 pf=0.92 status=variable vmaxpu=1.5 vminpu=0.92 daily="RES_3_DO"
 
New "Load.BT_11074_165_M1" bus1="UC11074.2.4" phases=1 conn=delta model=2 kv=0.22 kw = 0.03750275195281262 pf=0.92 status=variable vmaxpu=1.5 vminpu=0.92 daily="RES_3_DO" 
New "Load.BT_11074_165_M2" bus1="UC11074.2.4" phases=1 conn=delta model=3 kv=0.22 kw = 0.03750275195281262 pf=0.92 status=variable vmaxpu=1.5 vminpu=0.92 daily="RES_3_DO"
 
New "Load.BT_15673_170_M1" bus1="UC15673.2.3.4" phases=2 conn=delta model=2 kv=0.38 kw = 0.0 pf=0.92 status=variable vmaxpu=1.5 vminpu=0.92 daily="RES_3_DO" 
New "Load.BT_15673_170_M2" bus1="UC15673.2.3.4" phases=2 conn=delta model=3 kv=0.38 kw = 0.0 pf=0.92 status=variable vmaxpu=1.5 vminpu=0.92 daily="RES_3_DO"
 
New "Load.BT_14821_172_M1" bus1="UC14821.3.4" phases=1 conn=delta model=2 kv=0.22 kw = 0.0 pf=0.92 status=variable vmaxpu=1.5 vminpu=0.92 daily="RES_3_DO" 
New "Load.BT_14821_172_M2" bus1="UC14821.3.4" phases=1 conn=delta model=3 kv=0.22 kw = 0.0 pf=0.92 status=variable vmaxpu=1.5 vminpu=0.92 daily="RES_3_DO"
 
New "Load.BT_12804_173_M1" bus1="UC12804.1.4" phases=1 conn=delta model=2 kv=0.22 kw = 0.0838296808356988 pf=0.92 status=variable vmaxpu=1.5 vminpu=0.92 daily="RES_3_DO" 
New "Load.BT_12804_173_M2" bus1="UC12804.1.4" phases=1 conn=delta model=3 kv=0.22 kw = 0.0838296808356988 pf=0.92 status=variable vmaxpu=1.5 vminpu=0.92 daily="RES_3_DO"
 
New "Load.BT_11814_175_M1" bus1="UC11814.2.4" phases=1 conn=delta model=2 kv=0.22 kw = 0.20955555985917176 pf=0.92 status=variable vmaxpu=1.5 vminpu=0.92 daily="RES_6_DO" 
New "Load.BT_11814_175_M2" bus1="UC11814.2.4" phases=1 conn=delta model=3 kv=0.22 kw = 0.20955555985917176 pf=0.92 status=variable vmaxpu=1.5 vminpu=0.92 daily="RES_6_DO"
 
New "Load.BT_15821_176_M1" bus1="UC15821.1.2.3.4" phases=3 conn=delta model=2 kv=0.38 kw = 0.04062287188332587 pf=0.92 status=variable vmaxpu=1.5 vminpu=0.92 daily="RES_2_DO" 
New "Load.BT_15821_176_M2" bus1="UC15821.1.2.3.4" phases=3 conn=delta model=3 kv=0.38 kw = 0.04062287188332587 pf=0.92 status=variable vmaxpu=1.5 vminpu=0.92 daily="RES_2_DO"
 
New "Load.BT_7495_177_M1" bus1="UC7495.2.4" phases=1 conn=delta model=2 kv=0.22 kw = 0.31584351436847974 pf=0.92 status=variable vmaxpu=1.5 vminpu=0.92 daily="COM_1_DO" 
New "Load.BT_7495_177_M2" bus1="UC7495.2.4" phases=1 conn=delta model=3 kv=0.22 kw = 0.31584351436847974 pf=0.92 status=variable vmaxpu=1.5 vminpu=0.92 daily="COM_1_DO"
 
New "Load.BT_5102_178_M1" bus1="UC5102.3.4" phases=1 conn=delta model=2 kv=0.22 kw = 0.18523214666123217 pf=0.92 status=variable vmaxpu=1.5 vminpu=0.92 daily="RES_6_DO" 
New "Load.BT_5102_178_M2" bus1="UC5102.3.4" phases=1 conn=delta model=3 kv=0.22 kw = 0.18523214666123217 pf=0.92 status=variable vmaxpu=1.5 vminpu=0.92 daily="RES_6_DO"
 
New "Load.BT_1753_179_M1" bus1="UC1753.3.4" phases=1 conn=delta model=2 kv=0.22 kw = 0.0 pf=0.92 status=variable vmaxpu=1.5 vminpu=0.92 daily="RES_2_DO" 
New "Load.BT_1753_179_M2" bus1="UC1753.3.4" phases=1 conn=delta model=3 kv=0.22 kw = 0.0 pf=0.92 status=variable vmaxpu=1.5 vminpu=0.92 daily="RES_2_DO"
 
New "Load.BT_11184_183_M1" bus1="UC11184.3.4" phases=1 conn=delta model=2 kv=0.22 kw = 0.09649157882911023 pf=0.92 status=variable vmaxpu=1.5 vminpu=0.92 daily="RES_9_DO" 
New "Load.BT_11184_183_M2" bus1="UC11184.3.4" phases=1 conn=delta model=3 kv=0.22 kw = 0.09649157882911023 pf=0.92 status=variable vmaxpu=1.5 vminpu=0.92 daily="RES_9_DO"
 
New "Load.BT_15510_185_M1" bus1="UC15510.1.2.3.4" phases=3 conn=delta model=2 kv=0.38 kw = 0.004716599037113581 pf=0.92 status=variable vmaxpu=1.5 vminpu=0.92 daily="COM_12_DO" 
New "Load.BT_15510_185_M2" bus1="UC15510.1.2.3.4" phases=3 conn=delta model=3 kv=0.38 kw = 0.004716599037113581 pf=0.92 status=variable vmaxpu=1.5 vminpu=0.92 daily="COM_12_DO"
 
New "Load.BT_15793_186_M1" bus1="UC15793.1.2.3.4" phases=3 conn=delta model=2 kv=0.38 kw = 0.028447799215636747 pf=0.92 status=variable vmaxpu=1.5 vminpu=0.92 daily="COM_1_DO" 
New "Load.BT_15793_186_M2" bus1="UC15793.1.2.3.4" phases=3 conn=delta model=3 kv=0.38 kw = 0.028447799215636747 pf=0.92 status=variable vmaxpu=1.5 vminpu=0.92 daily="COM_1_DO"
 
New "Load.BT_15796_188_M1" bus1="UC15796.3.4" phases=1 conn=delta model=2 kv=0.22 kw = 0.19005700773984605 pf=0.92 status=variable vmaxpu=1.5 vminpu=0.92 daily="RES_2_DO" 
New "Load.BT_15796_188_M2" bus1="UC15796.3.4" phases=1 conn=delta model=3 kv=0.22 kw = 0.19005700773984605 pf=0.92 status=variable vmaxpu=1.5 vminpu=0.92 daily="RES_2_DO"
 
New "Load.BT_15798_190_M1" bus1="UC15798.1.2.3.4" phases=3 conn=delta model=2 kv=0.38 kw = 0.0012192645827729684 pf=0.92 status=variable vmaxpu=1.5 vminpu=0.92 daily="RES_12_DO" 
New "Load.BT_15798_190_M2" bus1="UC15798.1.2.3.4" phases=3 conn=delta model=3 kv=0.38 kw = 0.0012192645827729684 pf=0.92 status=variable vmaxpu=1.5 vminpu=0.92 daily="RES_12_DO"
 
New "Load.BT_10578_191_M1" bus1="UC10578.1.4" phases=1 conn=delta model=2 kv=0.22 kw = 0.17905061049754228 pf=0.92 status=variable vmaxpu=1.5 vminpu=0.92 daily="RES_7_DO" 
New "Load.BT_10578_191_M2" bus1="UC10578.1.4" phases=1 conn=delta model=3 kv=0.22 kw = 0.17905061049754228 pf=0.92 status=variable vmaxpu=1.5 vminpu=0.92 daily="RES_7_DO"
 
New "Load.BT_9738_192_M1" bus1="UC9738.1.4" phases=1 conn=delta model=2 kv=0.22 kw = 0.014968254275655124 pf=0.92 status=variable vmaxpu=1.5 vminpu=0.92 daily="RES_6_DO" 
New "Load.BT_9738_192_M2" bus1="UC9738.1.4" phases=1 conn=delta model=3 kv=0.22 kw = 0.014968254275655124 pf=0.92 status=variable vmaxpu=1.5 vminpu=0.92 daily="RES_6_DO"
 
New "Load.BT_6242_193_M1" bus1="UC6242.2.4" phases=1 conn=delta model=2 kv=0.22 kw = 0.04932777300118142 pf=0.92 status=variable vmaxpu=1.5 vminpu=0.92 daily="RES_2_DO" 
New "Load.BT_6242_193_M2" bus1="UC6242.2.4" phases=1 conn=delta model=3 kv=0.22 kw = 0.04932777300118142 pf=0.92 status=variable vmaxpu=1.5 vminpu=0.92 daily="RES_2_DO"
 
New "Load.BT_11814_195_M1" bus1="UC11814.2.4" phases=1 conn=delta model=2 kv=0.22 kw = 0.14757535585628626 pf=0.92 status=variable vmaxpu=1.5 vminpu=0.92 daily="RES_9_DO" 
New "Load.BT_11814_195_M2" bus1="UC11814.2.4" phases=1 conn=delta model=3 kv=0.22 kw = 0.14757535585628626 pf=0.92 status=variable vmaxpu=1.5 vminpu=0.92 daily="RES_9_DO"
 
New "Load.BT_6619_196_M1" bus1="UC6619.3.4" phases=1 conn=delta model=2 kv=0.22 kw = 0.19731109200472569 pf=0.92 status=variable vmaxpu=1.5 vminpu=0.92 daily="RES_2_DO" 
New "Load.BT_6619_196_M2" bus1="UC6619.3.4" phases=1 conn=delta model=3 kv=0.22 kw = 0.19731109200472569 pf=0.92 status=variable vmaxpu=1.5 vminpu=0.92 daily="RES_2_DO"
 
New "Load.BT_15805_197_M1" bus1="UC15805.1.4" phases=1 conn=delta model=2 kv=0.22 kw = 0.002901633705951848 pf=0.92 status=variable vmaxpu=1.5 vminpu=0.92 daily="RES_2_DO" 
New "Load.BT_15805_197_M2" bus1="UC15805.1.4" phases=1 conn=delta model=3 kv=0.22 kw = 0.002901633705951848 pf=0.92 status=variable vmaxpu=1.5 vminpu=0.92 daily="RES_2_DO"
 
New "Load.BT_15807_199_M1" bus1="UC15807.1.2.3.4" phases=3 conn=delta model=2 kv=0.38 kw = 9.232404991597804 pf=0.92 status=variable vmaxpu=1.5 vminpu=0.92 daily="COM_1_DO" 
New "Load.BT_15807_199_M2" bus1="UC15807.1.2.3.4" phases=3 conn=delta model=3 kv=0.38 kw = 9.232404991597804 pf=0.92 status=variable vmaxpu=1.5 vminpu=0.92 daily="COM_1_DO"
 
New "Load.BT_14335_200_M1" bus1="UC14335.2.4" phases=1 conn=delta model=2 kv=0.22 kw = 0.14072923473866464 pf=0.92 status=variable vmaxpu=1.5 vminpu=0.92 daily="RES_2_DO" 
New "Load.BT_14335_200_M2" bus1="UC14335.2.4" phases=1 conn=delta model=3 kv=0.22 kw = 0.14072923473866464 pf=0.92 status=variable vmaxpu=1.5 vminpu=0.92 daily="RES_2_DO"
 
New "Load.BT_12650_202_M1" bus1="UC12650.2.3.4" phases=2 conn=delta model=2 kv=0.38 kw = 0.3437233735037411 pf=0.92 status=variable vmaxpu=1.5 vminpu=0.92 daily="RES_11_DO" 
New "Load.BT_12650_202_M2" bus1="UC12650.2.3.4" phases=2 conn=delta model=3 kv=0.38 kw = 0.3437233735037411 pf=0.92 status=variable vmaxpu=1.5 vminpu=0.92 daily="RES_11_DO"
 
New "Load.BT_10383_203_M1" bus1="UC10383.2.4" phases=1 conn=delta model=2 kv=0.22 kw = 0.27528479842422626 pf=0.92 status=variable vmaxpu=1.5 vminpu=0.92 daily="RES_9_DO" 
New "Load.BT_10383_203_M2" bus1="UC10383.2.4" phases=1 conn=delta model=3 kv=0.22 kw = 0.27528479842422626 pf=0.92 status=variable vmaxpu=1.5 vminpu=0.92 daily="RES_9_DO"
 
New "Load.BT_14653_204_M1" bus1="UC14653.1.2.3.4" phases=3 conn=delta model=2 kv=0.38 kw = 0.4860236457469346 pf=0.92 status=variable vmaxpu=1.5 vminpu=0.92 daily="RES_2_DO" 
New "Load.BT_14653_204_M2" bus1="UC14653.1.2.3.4" phases=3 conn=delta model=3 kv=0.38 kw = 0.4860236457469346 pf=0.92 status=variable vmaxpu=1.5 vminpu=0.92 daily="RES_2_DO"
 
New "Load.BT_5977_205_M1" bus1="UC5977.2.4" phases=1 conn=delta model=2 kv=0.22 kw = 0.06383594153094066 pf=0.92 status=variable vmaxpu=1.5 vminpu=0.92 daily="RES_2_DO" 
New "Load.BT_5977_205_M2" bus1="UC5977.2.4" phases=1 conn=delta model=3 kv=0.22 kw = 0.06383594153094066 pf=0.92 status=variable vmaxpu=1.5 vminpu=0.92 daily="RES_2_DO"
 
New "Load.BT_14783_206_M1" bus1="UC14783.1.2.3.4" phases=3 conn=delta model=2 kv=0.38 kw = 0.20456517626960527 pf=0.92 status=variable vmaxpu=1.5 vminpu=0.92 daily="RES_2_DO" 
New "Load.BT_14783_206_M2" bus1="UC14783.1.2.3.4" phases=3 conn=delta model=3 kv=0.38 kw = 0.20456517626960527 pf=0.92 status=variable vmaxpu=1.5 vminpu=0.92 daily="RES_2_DO"
 
New "Load.BT_6236_207_M1" bus1="UC6236.1.2.3.4" phases=3 conn=delta model=2 kv=0.38 kw = 0.14223899607818374 pf=0.92 status=variable vmaxpu=1.5 vminpu=0.92 daily="COM_1_DO" 
New "Load.BT_6236_207_M2" bus1="UC6236.1.2.3.4" phases=3 conn=delta model=3 kv=0.38 kw = 0.14223899607818374 pf=0.92 status=variable vmaxpu=1.5 vminpu=0.92 daily="COM_1_DO"
 
New "Load.BT_13253_208_M1" bus1="UC13253.1.2.4" phases=2 conn=delta model=2 kv=0.38 kw = 0.15378658641544793 pf=0.92 status=variable vmaxpu=1.5 vminpu=0.92 daily="RES_2_DO" 
New "Load.BT_13253_208_M2" bus1="UC13253.1.2.4" phases=2 conn=delta model=3 kv=0.38 kw = 0.15378658641544793 pf=0.92 status=variable vmaxpu=1.5 vminpu=0.92 daily="RES_2_DO"
 
New "Load.BT_15079_209_M1" bus1="UC15079.3.4" phases=1 conn=delta model=2 kv=0.22 kw = 0.36060264630972844 pf=0.92 status=variable vmaxpu=1.5 vminpu=0.92 daily="RES_11_DO" 
New "Load.BT_15079_209_M2" bus1="UC15079.3.4" phases=1 conn=delta model=3 kv=0.22 kw = 0.36060264630972844 pf=0.92 status=variable vmaxpu=1.5 vminpu=0.92 daily="RES_11_DO"
 
New "Load.BT_2860_210_M1" bus1="UC2860.2.4" phases=1 conn=delta model=2 kv=0.22 kw = 0.25099131556483484 pf=0.92 status=variable vmaxpu=1.5 vminpu=0.92 daily="RES_2_DO" 
New "Load.BT_2860_210_M2" bus1="UC2860.2.4" phases=1 conn=delta model=3 kv=0.22 kw = 0.25099131556483484 pf=0.92 status=variable vmaxpu=1.5 vminpu=0.92 daily="RES_2_DO"
 
New "Load.BT_14783_211_M1" bus1="UC14783.1.2.3.4" phases=3 conn=delta model=2 kv=0.38 kw = 0.43382231961327217 pf=0.92 status=variable vmaxpu=1.5 vminpu=0.92 daily="RES_5_DO" 
New "Load.BT_14783_211_M2" bus1="UC14783.1.2.3.4" phases=3 conn=delta model=3 kv=0.38 kw = 0.43382231961327217 pf=0.92 status=variable vmaxpu=1.5 vminpu=0.92 daily="RES_5_DO"
 
New "Load.BT_5377_212_M1" bus1="UC5377.3.4" phases=1 conn=delta model=2 kv=0.22 kw = 0.0012540866316907806 pf=0.92 status=variable vmaxpu=1.5 vminpu=0.92 daily="COM_5_DO" 
New "Load.BT_5377_212_M2" bus1="UC5377.3.4" phases=1 conn=delta model=3 kv=0.22 kw = 0.0012540866316907806 pf=0.92 status=variable vmaxpu=1.5 vminpu=0.92 daily="COM_5_DO"
 
New "Load.BT_15362_213_M1" bus1="UC15362.3.1.4" phases=2 conn=delta model=2 kv=0.38 kw = 0.0 pf=0.92 status=variable vmaxpu=1.5 vminpu=0.92 daily="RES_3_DO" 
New "Load.BT_15362_213_M2" bus1="UC15362.3.1.4" phases=2 conn=delta model=3 kv=0.38 kw = 0.0 pf=0.92 status=variable vmaxpu=1.5 vminpu=0.92 daily="RES_3_DO"
 
New "Load.BT_15362_214_M1" bus1="UC15362.1.2.4" phases=2 conn=delta model=2 kv=0.38 kw = 0.0 pf=0.92 status=variable vmaxpu=1.5 vminpu=0.92 daily="RES_3_DO" 
New "Load.BT_15362_214_M2" bus1="UC15362.1.2.4" phases=2 conn=delta model=3 kv=0.38 kw = 0.0 pf=0.92 status=variable vmaxpu=1.5 vminpu=0.92 daily="RES_3_DO"
 
New "Load.BT_2835_215_M1" bus1="UC2835.3.4" phases=1 conn=delta model=2 kv=0.22 kw = 0.30222805985501944 pf=0.92 status=variable vmaxpu=1.5 vminpu=0.92 daily="RES_3_DO" 
New "Load.BT_2835_215_M2" bus1="UC2835.3.4" phases=1 conn=delta model=3 kv=0.22 kw = 0.30222805985501944 pf=0.92 status=variable vmaxpu=1.5 vminpu=0.92 daily="RES_3_DO"
 
New "Load.BT_16096_217_M1" bus1="UC16096.2.4" phases=1 conn=delta model=2 kv=0.22 kw = 0.0 pf=0.92 status=variable vmaxpu=1.5 vminpu=0.92 daily="RES_7_DO" 
New "Load.BT_16096_217_M2" bus1="UC16096.2.4" phases=1 conn=delta model=3 kv=0.22 kw = 0.0 pf=0.92 status=variable vmaxpu=1.5 vminpu=0.92 daily="RES_7_DO"
 
New "Load.BT_16099_218_M1" bus1="UC16099.3.4" phases=1 conn=delta model=2 kv=0.22 kw = 0.0 pf=0.92 status=variable vmaxpu=1.5 vminpu=0.92 daily="COM_1_DO" 
New "Load.BT_16099_218_M2" bus1="UC16099.3.4" phases=1 conn=delta model=3 kv=0.22 kw = 0.0 pf=0.92 status=variable vmaxpu=1.5 vminpu=0.92 daily="COM_1_DO"
 
New "Load.BT_8981_219_M1" bus1="UC8981.3.4" phases=1 conn=delta model=2 kv=0.22 kw = 0.017327478435246027 pf=0.92 status=variable vmaxpu=1.5 vminpu=0.92 daily="RES_7_DO" 
New "Load.BT_8981_219_M2" bus1="UC8981.3.4" phases=1 conn=delta model=3 kv=0.22 kw = 0.017327478435246027 pf=0.92 status=variable vmaxpu=1.5 vminpu=0.92 daily="RES_7_DO"
 
New "Load.BT_16100_220_M1" bus1="UC16100.3.4" phases=1 conn=delta model=2 kv=0.22 kw = 0.1257445212535482 pf=0.92 status=variable vmaxpu=1.5 vminpu=0.92 daily="RES_3_DO" 
New "Load.BT_16100_220_M2" bus1="UC16100.3.4" phases=1 conn=delta model=3 kv=0.22 kw = 0.1257445212535482 pf=0.92 status=variable vmaxpu=1.5 vminpu=0.92 daily="RES_3_DO"
 
New "Load.BT_16103_221_M1" bus1="UC16103.3.4" phases=1 conn=delta model=2 kv=0.22 kw = 0.06176923851051492 pf=0.92 status=variable vmaxpu=1.5 vminpu=0.92 daily="RES_3_DO" 
New "Load.BT_16103_221_M2" bus1="UC16103.3.4" phases=1 conn=delta model=3 kv=0.22 kw = 0.06176923851051492 pf=0.92 status=variable vmaxpu=1.5 vminpu=0.92 daily="RES_3_DO"
 
New "Load.BT_15510_223_M1" bus1="UC15510.1.2.4" phases=2 conn=delta model=2 kv=0.38 kw = 0.00220604423251839 pf=0.92 status=variable vmaxpu=1.5 vminpu=0.92 daily="RES_3_DO" 
New "Load.BT_15510_223_M2" bus1="UC15510.1.2.4" phases=2 conn=delta model=3 kv=0.38 kw = 0.00220604423251839 pf=0.92 status=variable vmaxpu=1.5 vminpu=0.92 daily="RES_3_DO"
 
New "Load.BT_15362_224_M1" bus1="UC15362.1.2.3.4" phases=3 conn=delta model=2 kv=0.38 kw = 0.0 pf=0.92 status=variable vmaxpu=1.5 vminpu=0.92 daily="COM_5_DO" 
New "Load.BT_15362_224_M2" bus1="UC15362.1.2.3.4" phases=3 conn=delta model=3 kv=0.38 kw = 0.0 pf=0.92 status=variable vmaxpu=1.5 vminpu=0.92 daily="COM_5_DO"
 
New "Load.BT_11074_225_M1" bus1="UC11074.3.4" phases=1 conn=delta model=2 kv=0.22 kw = 0.012122837439677547 pf=0.92 status=variable vmaxpu=1.5 vminpu=0.92 daily="COM_5_DO" 
New "Load.BT_11074_225_M2" bus1="UC11074.3.4" phases=1 conn=delta model=3 kv=0.22 kw = 0.012122837439677547 pf=0.92 status=variable vmaxpu=1.5 vminpu=0.92 daily="COM_5_DO"
 
New "Load.BT_16080_226_M1" bus1="UC16080.2.4" phases=1 conn=delta model=2 kv=0.22 kw = 0.10049937492442695 pf=0.92 status=variable vmaxpu=1.5 vminpu=0.92 daily="RES_7_DO" 
New "Load.BT_16080_226_M2" bus1="UC16080.2.4" phases=1 conn=delta model=3 kv=0.22 kw = 0.10049937492442695 pf=0.92 status=variable vmaxpu=1.5 vminpu=0.92 daily="RES_7_DO"
 
New "Load.BT_15581_227_M1" bus1="UC15581.1.2.3.4" phases=3 conn=delta model=2 kv=0.38 kw = 0.1919258482290999 pf=0.92 status=variable vmaxpu=1.5 vminpu=0.92 daily="RES_3_DO" 
New "Load.BT_15581_227_M2" bus1="UC15581.1.2.3.4" phases=3 conn=delta model=3 kv=0.38 kw = 0.1919258482290999 pf=0.92 status=variable vmaxpu=1.5 vminpu=0.92 daily="RES_3_DO"
 
New "Load.BT_6951_228_M1" bus1="UC6951.3.4" phases=1 conn=delta model=2 kv=0.22 kw = 0.006930991374098411 pf=0.92 status=variable vmaxpu=1.5 vminpu=0.92 daily="RES_7_DO" 
New "Load.BT_6951_228_M2" bus1="UC6951.3.4" phases=1 conn=delta model=3 kv=0.22 kw = 0.006930991374098411 pf=0.92 status=variable vmaxpu=1.5 vminpu=0.92 daily="RES_7_DO"
 
New "Load.BT_11814_230_M1" bus1="UC11814.1.2.4" phases=2 conn=delta model=2 kv=0.38 kw = 0.13677474241614015 pf=0.92 status=variable vmaxpu=1.5 vminpu=0.92 daily="RES_3_DO" 
New "Load.BT_11814_230_M2" bus1="UC11814.1.2.4" phases=2 conn=delta model=3 kv=0.38 kw = 0.13677474241614015 pf=0.92 status=variable vmaxpu=1.5 vminpu=0.92 daily="RES_3_DO"
 
New "Load.BT_5368_231_M1" bus1="UC5368.1.2.3.4" phases=3 conn=delta model=2 kv=0.38 kw = 0.2514890425070964 pf=0.92 status=variable vmaxpu=1.5 vminpu=0.92 daily="RES_3_DO" 
New "Load.BT_5368_231_M2" bus1="UC5368.1.2.3.4" phases=3 conn=delta model=3 kv=0.38 kw = 0.2514890425070964 pf=0.92 status=variable vmaxpu=1.5 vminpu=0.92 daily="RES_3_DO"
 
New "Load.BT_11814_233_M1" bus1="UC11814.3.1.4" phases=2 conn=delta model=2 kv=0.38 kw = 0.02887913072541005 pf=0.92 status=variable vmaxpu=1.5 vminpu=0.92 daily="RES_7_DO" 
New "Load.BT_11814_233_M2" bus1="UC11814.3.1.4" phases=2 conn=delta model=3 kv=0.38 kw = 0.02887913072541005 pf=0.92 status=variable vmaxpu=1.5 vminpu=0.92 daily="RES_7_DO"
 
New "Load.BT_13253_235_M1" bus1="UC13253.1.2.4" phases=2 conn=delta model=2 kv=0.38 kw = 0.4632692888288618 pf=0.92 status=variable vmaxpu=1.5 vminpu=0.92 daily="RES_3_DO" 
New "Load.BT_13253_235_M2" bus1="UC13253.1.2.4" phases=2 conn=delta model=3 kv=0.38 kw = 0.4632692888288618 pf=0.92 status=variable vmaxpu=1.5 vminpu=0.92 daily="RES_3_DO"
 
New "Load.BT_15510_236_M1" bus1="UC15510.3.1.4" phases=2 conn=delta model=2 kv=0.38 kw = 0.0 pf=0.92 status=variable vmaxpu=1.5 vminpu=0.92 daily="RES_7_DO" 
New "Load.BT_15510_236_M2" bus1="UC15510.3.1.4" phases=2 conn=delta model=3 kv=0.38 kw = 0.0 pf=0.92 status=variable vmaxpu=1.5 vminpu=0.92 daily="RES_7_DO"
 
New "Load.BT_12303_237_M1" bus1="UC12303.2.4" phases=1 conn=delta model=2 kv=0.22 kw = 0.00577582614508201 pf=0.92 status=variable vmaxpu=1.5 vminpu=0.92 daily="RES_7_DO" 
New "Load.BT_12303_237_M2" bus1="UC12303.2.4" phases=1 conn=delta model=3 kv=0.22 kw = 0.00577582614508201 pf=0.92 status=variable vmaxpu=1.5 vminpu=0.92 daily="RES_7_DO"
 
New "Load.BT_12262_238_M1" bus1="UC12262.1.4" phases=1 conn=delta model=2 kv=0.22 kw = 0.006930991374098411 pf=0.92 status=variable vmaxpu=1.5 vminpu=0.92 daily="RES_7_DO" 
New "Load.BT_12262_238_M2" bus1="UC12262.1.4" phases=1 conn=delta model=3 kv=0.22 kw = 0.006930991374098411 pf=0.92 status=variable vmaxpu=1.5 vminpu=0.92 daily="RES_7_DO"
 
New "Load.BT_15769_240_M1" bus1="UC15769.2.4" phases=1 conn=delta model=2 kv=0.22 kw = 0.2176225279463886 pf=0.92 status=variable vmaxpu=1.5 vminpu=0.92 daily="RES_2_DO" 
New "Load.BT_15769_240_M2" bus1="UC15769.2.4" phases=1 conn=delta model=3 kv=0.22 kw = 0.2176225279463886 pf=0.92 status=variable vmaxpu=1.5 vminpu=0.92 daily="RES_2_DO"
 
New "Load.BT_9154_242_M1" bus1="UC9154.3.4" phases=1 conn=delta model=2 kv=0.22 kw = 0.47704770992375467 pf=0.92 status=variable vmaxpu=1.5 vminpu=0.92 daily="COM_1_DO" 
New "Load.BT_9154_242_M2" bus1="UC9154.3.4" phases=1 conn=delta model=3 kv=0.22 kw = 0.47704770992375467 pf=0.92 status=variable vmaxpu=1.5 vminpu=0.92 daily="COM_1_DO"
 
New "Load.BT_15771_243_M1" bus1="UC15771.1.2.3.4" phases=3 conn=delta model=2 kv=0.38 kw = 0.23268840896892617 pf=0.92 status=variable vmaxpu=1.5 vminpu=0.92 daily="COM_1_DO" 
New "Load.BT_15771_243_M2" bus1="UC15771.1.2.3.4" phases=3 conn=delta model=3 kv=0.38 kw = 0.23268840896892617 pf=0.92 status=variable vmaxpu=1.5 vminpu=0.92 daily="COM_1_DO"
 
New "Load.BT_15774_244_M1" bus1="UC15774.1.4" phases=1 conn=delta model=2 kv=0.22 kw = 0.18715537403389418 pf=0.92 status=variable vmaxpu=1.5 vminpu=0.92 daily="RES_2_DO" 
New "Load.BT_15774_244_M2" bus1="UC15774.1.4" phases=1 conn=delta model=3 kv=0.22 kw = 0.18715537403389418 pf=0.92 status=variable vmaxpu=1.5 vminpu=0.92 daily="RES_2_DO"
 
New "Load.BT_5019_249_M1" bus1="UC5019.1.4" phases=1 conn=delta model=2 kv=0.22 kw = 0.2321306964761478 pf=0.92 status=variable vmaxpu=1.5 vminpu=0.92 daily="RES_2_DO" 
New "Load.BT_5019_249_M2" bus1="UC5019.1.4" phases=1 conn=delta model=3 kv=0.22 kw = 0.2321306964761478 pf=0.92 status=variable vmaxpu=1.5 vminpu=0.92 daily="RES_2_DO"
 
New "Load.BT_15445_253_M1" bus1="UC15445.3.4" phases=1 conn=delta model=2 kv=0.22 kw = 0.15668822012139977 pf=0.92 status=variable vmaxpu=1.5 vminpu=0.92 daily="RES_2_DO" 
New "Load.BT_15445_253_M2" bus1="UC15445.3.4" phases=1 conn=delta model=3 kv=0.22 kw = 0.15668822012139977 pf=0.92 status=variable vmaxpu=1.5 vminpu=0.92 daily="RES_2_DO"
 
New "Load.BT_7160_254_M1" bus1="UC7160.1.4" phases=1 conn=delta model=2 kv=0.22 kw = 0.05543673693303571 pf=0.92 status=variable vmaxpu=1.5 vminpu=0.92 daily="COM_1_DO" 
New "Load.BT_7160_254_M2" bus1="UC7160.1.4" phases=1 conn=delta model=3 kv=0.22 kw = 0.05543673693303571 pf=0.92 status=variable vmaxpu=1.5 vminpu=0.92 daily="COM_1_DO"
 
New "Load.BT_7914_257_M1" bus1="UC7914.1.4" phases=1 conn=delta model=2 kv=0.22 kw = 0.026259506968280076 pf=0.92 status=variable vmaxpu=1.5 vminpu=0.92 daily="COM_1_DO" 
New "Load.BT_7914_257_M2" bus1="UC7914.1.4" phases=1 conn=delta model=3 kv=0.22 kw = 0.026259506968280076 pf=0.92 status=variable vmaxpu=1.5 vminpu=0.92 daily="COM_1_DO"
 
New "Load.BT_15448_258_M1" bus1="UC15448.1.4" phases=1 conn=delta model=2 kv=0.22 kw = 0.02176225279463886 pf=0.92 status=variable vmaxpu=1.5 vminpu=0.92 daily="RES_2_DO" 
New "Load.BT_15448_258_M2" bus1="UC15448.1.4" phases=1 conn=delta model=3 kv=0.22 kw = 0.02176225279463886 pf=0.92 status=variable vmaxpu=1.5 vminpu=0.92 daily="RES_2_DO"
 
New "Load.BT_10064_260_M1" bus1="UC10064.3.4" phases=1 conn=delta model=2 kv=0.22 kw = 0.541671209137592 pf=0.92 status=variable vmaxpu=1.5 vminpu=0.92 daily="RES_11_DO" 
New "Load.BT_10064_260_M2" bus1="UC10064.3.4" phases=1 conn=delta model=3 kv=0.22 kw = 0.541671209137592 pf=0.92 status=variable vmaxpu=1.5 vminpu=0.92 daily="RES_11_DO"
 
New "Load.BT_9638_261_M1" bus1="UC9638.3.4" phases=1 conn=delta model=2 kv=0.22 kw = 0.38445363229162555 pf=0.92 status=variable vmaxpu=1.5 vminpu=0.92 daily="RES_1_DO" 
New "Load.BT_9638_261_M2" bus1="UC9638.3.4" phases=1 conn=delta model=3 kv=0.22 kw = 0.38445363229162555 pf=0.92 status=variable vmaxpu=1.5 vminpu=0.92 daily="RES_1_DO"
 
New "Load.BT_15452_262_M1" bus1="UC15452.1.2.3.4" phases=3 conn=delta model=2 kv=0.38 kw = 0.4990809974237178 pf=0.92 status=variable vmaxpu=1.5 vminpu=0.92 daily="RES_2_DO" 
New "Load.BT_15452_262_M2" bus1="UC15452.1.2.3.4" phases=3 conn=delta model=3 kv=0.38 kw = 0.4990809974237178 pf=0.92 status=variable vmaxpu=1.5 vminpu=0.92 daily="RES_2_DO"
 
New "Load.BT_15581_265_M1" bus1="UC15581.1.4" phases=1 conn=delta model=2 kv=0.22 kw = 0.2272225559493941 pf=0.92 status=variable vmaxpu=1.5 vminpu=0.92 daily="RES_3_DO" 
New "Load.BT_15581_265_M2" bus1="UC15581.1.4" phases=1 conn=delta model=3 kv=0.22 kw = 0.2272225559493941 pf=0.92 status=variable vmaxpu=1.5 vminpu=0.92 daily="RES_3_DO"
 
New "Load.BT_14783_266_M1" bus1="UC14783.1.2.3.4" phases=3 conn=delta model=2 kv=0.38 kw = 0.816236366031804 pf=0.92 status=variable vmaxpu=1.5 vminpu=0.92 daily="RES_3_DO" 
New "Load.BT_14783_266_M2" bus1="UC14783.1.2.3.4" phases=3 conn=delta model=3 kv=0.38 kw = 0.816236366031804 pf=0.92 status=variable vmaxpu=1.5 vminpu=0.92 daily="RES_3_DO"
 
New "Load.BT_8867_270_M1" bus1="UC8867.1.4" phases=1 conn=delta model=2 kv=0.22 kw = 0.5559231465946342 pf=0.92 status=variable vmaxpu=1.5 vminpu=0.92 daily="RES_3_DO" 
New "Load.BT_8867_270_M2" bus1="UC8867.1.4" phases=1 conn=delta model=3 kv=0.22 kw = 0.5559231465946342 pf=0.92 status=variable vmaxpu=1.5 vminpu=0.92 daily="RES_3_DO"
 
New "Load.BT_12650_273_M1" bus1="UC12650.2.3.4" phases=2 conn=delta model=2 kv=0.38 kw = 0.12475784473377143 pf=0.92 status=variable vmaxpu=1.5 vminpu=0.92 daily="RES_7_DO" 
New "Load.BT_12650_273_M2" bus1="UC12650.2.3.4" phases=2 conn=delta model=3 kv=0.38 kw = 0.12475784473377143 pf=0.92 status=variable vmaxpu=1.5 vminpu=0.92 daily="RES_7_DO"
 
New "Load.BT_16074_274_M1" bus1="UC16074.1.2.3.4" phases=3 conn=delta model=2 kv=0.38 kw = 8.272665871943962 pf=0.92 status=variable vmaxpu=1.5 vminpu=0.92 daily="RES_3_DO" 
New "Load.BT_16074_274_M2" bus1="UC16074.1.2.3.4" phases=3 conn=delta model=3 kv=0.38 kw = 8.272665871943962 pf=0.92 status=variable vmaxpu=1.5 vminpu=0.92 daily="RES_3_DO"
 
New "Load.BT_16078_276_M1" bus1="UC16078.1.2.4" phases=2 conn=delta model=2 kv=0.38 kw = 0.012706817519180423 pf=0.92 status=variable vmaxpu=1.5 vminpu=0.92 daily="RES_7_DO" 
New "Load.BT_16078_276_M2" bus1="UC16078.1.2.4" phases=2 conn=delta model=3 kv=0.38 kw = 0.012706817519180423 pf=0.92 status=variable vmaxpu=1.5 vminpu=0.92 daily="RES_7_DO"
 
New "Load.BT_15580_277_M1" bus1="UC15580.2.4" phases=1 conn=delta model=2 kv=0.22 kw = 0.2713027515064978 pf=0.92 status=variable vmaxpu=1.5 vminpu=0.92 daily="RES_2_DO" 
New "Load.BT_15580_277_M2" bus1="UC15580.2.4" phases=1 conn=delta model=3 kv=0.22 kw = 0.2713027515064978 pf=0.92 status=variable vmaxpu=1.5 vminpu=0.92 daily="RES_2_DO"
 
New "Load.BT_15707_278_M1" bus1="UC15707.1.4" phases=1 conn=delta model=2 kv=0.22 kw = 0.20891762682853307 pf=0.92 status=variable vmaxpu=1.5 vminpu=0.92 daily="RES_2_DO" 
New "Load.BT_15707_278_M2" bus1="UC15707.1.4" phases=1 conn=delta model=3 kv=0.22 kw = 0.20891762682853307 pf=0.92 status=variable vmaxpu=1.5 vminpu=0.92 daily="RES_2_DO"
 
New "Load.BT_11074_279_M1" bus1="UC11074.1.4" phases=1 conn=delta model=2 kv=0.22 kw = 0.0 pf=0.92 status=variable vmaxpu=1.5 vminpu=0.92 daily="COM_1_DO" 
New "Load.BT_11074_279_M2" bus1="UC11074.1.4" phases=1 conn=delta model=3 kv=0.22 kw = 0.0 pf=0.92 status=variable vmaxpu=1.5 vminpu=0.92 daily="COM_1_DO"
 
New "Load.BT_8981_281_M1" bus1="UC8981.2.4" phases=1 conn=delta model=2 kv=0.22 kw = 0.15813903697437573 pf=0.92 status=variable vmaxpu=1.5 vminpu=0.92 daily="RES_2_DO" 
New "Load.BT_8981_281_M2" bus1="UC8981.2.4" phases=1 conn=delta model=3 kv=0.22 kw = 0.15813903697437573 pf=0.92 status=variable vmaxpu=1.5 vminpu=0.92 daily="RES_2_DO"
 
New "Load.BT_15761_282_M1" bus1="UC15761.1.2.3.4" phases=3 conn=delta model=2 kv=0.38 kw = 0.023213069647614784 pf=0.92 status=variable vmaxpu=1.5 vminpu=0.92 daily="RES_2_DO" 
New "Load.BT_15761_282_M2" bus1="UC15761.1.2.3.4" phases=3 conn=delta model=3 kv=0.38 kw = 0.023213069647614784 pf=0.92 status=variable vmaxpu=1.5 vminpu=0.92 daily="RES_2_DO"
 
New "Load.BT_15760_283_M1" bus1="UC15760.1.2.3.4" phases=3 conn=delta model=2 kv=0.38 kw = 0.01458861498237782 pf=0.92 status=variable vmaxpu=1.5 vminpu=0.92 daily="COM_1_DO" 
New "Load.BT_15760_283_M2" bus1="UC15760.1.2.3.4" phases=3 conn=delta model=3 kv=0.38 kw = 0.01458861498237782 pf=0.92 status=variable vmaxpu=1.5 vminpu=0.92 daily="COM_1_DO"
 
New "Load.BT_8051_284_M1" bus1="UC8051.1.2.4" phases=2 conn=delta model=2 kv=0.38 kw = 1.0344324161718337 pf=0.92 status=variable vmaxpu=1.5 vminpu=0.92 daily="RES_2_DO" 
New "Load.BT_8051_284_M2" bus1="UC8051.1.2.4" phases=2 conn=delta model=3 kv=0.38 kw = 1.0344324161718337 pf=0.92 status=variable vmaxpu=1.5 vminpu=0.92 daily="RES_2_DO"
 
...